/*---------------------------------------------------------------------------*\
| =========                 |                                                 |
| \\      /  F ield         | OpenFOAM: The Open Source CFD Toolbox           |
|  \\    /   O peration     | Version:  1.4                                   |
|   \\  /    A nd           | Web:      http://www.openfoam.org               |
|    \\/     M anipulation  |                                                 |
\*---------------------------------------------------------------------------*/


FoamFile
{
    version         2.0;
    format          ascii;

    root            "";
    case            "";
    instance        "";
    local           "";

    class           dictionary;
    object          couplingProperties;
}

// * * * * * * * * * * * * * * * * * * * * * * * * * * * * * * * * * * * * * //

//===========================================================================//
// sub-models & settings

modelType none;

checkPeriodicCells true;

couplingInterval 10;

depth 0;

voidFractionModel IB;

locateModel engineIB;

meshMotionModel noMeshMotion;

dataExchangeModel twoWayMPI;

IOModel basicIO;

probeModel off;

averagingModel dilute;

clockModel off;

smoothingModel off;

forceModels
(
    ShirgaonkarIB
    ArchimedesIB
);

momCoupleModels
(
);

turbulenceModelType turbulenceProperties; //OFversion30x

//===========================================================================//
// sub-model properties

ShirgaonkarIBProps
{
    velFieldName "U";
    pressureFieldName "p";
}

ArchimedesIBProps
{
    gravityFieldName "g";
    voidfractionFieldName "voidfractionNext";
}

twoWayMPIProps
{
    maxNumberOfParticles 10100;
    liggghtsPath "../DEM/in.liggghts_run";
}

IBProps
{
    maxCellsPerParticle 100000;
    alphaMin 0.30;
    scaleUpVol 1.0;
}

engineIBProps
{
    treeSearch false;
    zSplit 8;
    xySplit 16;
}

// ************************************************************************* //
